cso.pdb
 OpenBabel10201617353D

 22 20  0  0  1  0  0  0  0  0999 V2000
   -5.5030   34.8090   36.0780 N   0  0  0  0  0  0  0  0  0  0  0  0
   -5.6060   36.2880   35.9440 C   0  0  1  0  0  0  0  0  0  0  0  0
   -6.8550   36.7710   35.1270 C   0  0  0  0  0  0  0  0  0  0  0  0
   -6.9540   36.5830   33.3040 S   0  0  0  0  0  0  0  0  0  0  0  0
   -5.5910   36.9670   37.3500 C   0  0  0  0  0  0  0  0  0  0  0  0
   -5.0870   36.4080   38.3110 O   0  0  0  0  0  0  0  0  0  0  0  0
   -6.6060   38.0590   32.8570 O   0  0  0  0  0  0  0  0  0  0  0  0
   -6.6190   38.1160   31.8790 H   0  0  0  0  0  0  0  0  0  0  0  0
   -7.7210   36.2580   35.5440 H   0  0  0  0  0  0  0  0  0  0  0  0
   -6.9800   37.8320   35.3410 H   0  0  0  0  0  0  0  0  0  0  0  0
   -4.7310   36.5940   35.3710 H   0  0  0  0  0  0  0  0  0  0  0  0
  -27.1950   21.9820   19.8360 N   0  0  0  0  0  0  0  0  0  0  0  0
  -28.2710   22.8030   20.4010 C   0  0  1  0  0  0  0  0  0  0  0  0
  -27.7360   23.7060   21.5800 C   0  0  0  0  0  0  0  0  0  0  0  0
  -28.9590   24.3350   22.8240 S   0  0  0  0  0  0  0  0  0  0  0  0
  -29.0350   23.5930   19.3180 C   0  0  0  0  0  0  0  0  0  0  0  0
  -29.3140   24.7750   19.4100 O   0  0  0  0  0  0  0  0  0  0  0  0
  -28.5270   23.4450   24.0580 O   0  0  0  0  0  0  0  0  0  0  0  0
  -29.0920   23.6590   24.8300 H   0  0  0  0  0  0  0  0  0  0  0  0
  -26.9770   23.1370   22.1170 H   0  0  0  0  0  0  0  0  0  0  0  0
  -27.2360   24.5680   21.1390 H   0  0  0  0  0  0  0  0  0  0  0  0
  -29.0110   22.1310   20.8370 H   0  0  0  0  0  0  0  0  0  0  0  0
  2 11  1  6  0  0  0
  2  1  1  0  0  0  0
  2  5  1  0  0  0  0
  3 10  1  0  0  0  0
  3  9  1  0  0  0  0
  3  2  1  0  0  0  0
  4  3  1  0  0  0  0
  5  6  2  0  0  0  0
  7  4  1  0  0  0  0
  8  7  1  0  0  0  0
 12 13  1  0  0  0  0
 13 22  1  1  0  0  0
 13 14  1  0  0  0  0
 14 20  1  0  0  0  0
 14 15  1  0  0  0  0
 15 18  1  0  0  0  0
 16 17  2  0  0  0  0
 16 13  1  0  0  0  0
 18 19  1  0  0  0  0
 21 14  1  0  0  0  0
M  END
$$$$
